[Config DCTCP_ECMP]
network = LeafSpine1G

**.ipv4.ip.timeToLive = ${ttl = 250}
**.tcp.close_instead_of_timewait = ${closeInsteadOfWait = true}
**.tcp.FRs_disabled = ${FRsDisabled = false}
**.useECMP = ${usingECMP = true}
**.use_power_of_n_lb = ${usingPowerOfNLB = false}
**.agg[*].random_power_factor = ${aggRandomPowerFactor = 2}
**.spine[*].random_power_factor = ${spineRandomPowerFactor = $aggRandomPowerFactor}
**.tcp.tcpAlgorithmClass = "DCTcp"
**.tcp.ecnWillingness = ${ecnWill = true}

sim-time-limit = ${simTimeLimit = 5.2}s

**.ipv4.ip.should_use_v2_marking = ${shouldUseV2Marking = false}
**.ipv4.ip.marking_type = ${markingType = "SRPT"}
**.ipv4.ip.delta = ${markingTimer = 0.00120}s
**.ipv4.ip.has_ordering_layer = ${hasOrderingLayer = false}
**.ipv4.ip.omega = ${orderingTimer = 0.00120}s

**.num_spines = ${numSpines = 4}
**.num_aggs = ${numAggs = 8}
**.num_servers = ${numServers = 40}
**.num_bursty_apps = ${numBurstyApps = 1}
**.server[*].app[1..].num_requests_per_burst = ${numReqPerBurst = 40}
**.num_mice_background_flow_apps_in_each_server = ${numMiceBackgroundFlowAppsInEachServer = 1}
**.num_elephant_background_flow_apps_in_each_server = ${numElephantBackgroundFlowAppsInEachServer = 0}

**.server[*].app[1..].startTime = 0s
**.server[*].app[1..].replyLength = ${incastFlowSize = 20000}B
**.server[*].app[1..].requestLength = 250B
**.server[*].app[1..].application_category = ${serverApplicationCategory = index() < 1 + $numMiceBackgroundFlowAppsInEachServer ? "cache" : "web"}
**.server[*].app[1..].background_inter_arrival_time_multiplier = ${bgInterArrivalMultiplier = 19.75}
**.server[*].app[1..].background_flow_size_multiplier = ${bgFlowSizeMultiplier = 1}
**.server[*].app[1..].bursty_inter_arrival_time_multiplier = ${burstyInterArrivalMultiplier = 0.5, 0.167, 0.097, 0.071}
**.server[*].app[1..].bursty_flow_size_multiplier = ${burstyFlowSizeMultiplier = 1}
**.server[*].app[1..].numRequestsToSend = 1
**.server[*].app[1..].distibutions_base_root = "./"

**.agg[*].eth[*].mac.queue.typename = ${aggQueueType = "V2PIFO"}
**.agg[*].eth[*].mac.queue.dataCapacity = ${aggQueueSizePacketBytes = 50000}B
**.agg[*].use_v2_pifo = ${aggUseV2Pifo = true}
**.agg[*].eth[*].mac.queue.dropper_type = ${aggDropperType = "FIFO"}
**.agg[*].eth[*].mac.queue.scheduler_type = ${aggSchedulerType = "FIFO"}
**.agg[*].eth[*].mac.queue.dctcp_thresh = ${aggQueueSizeDCTCPThresh = 20}

**.spine[*].eth[*].mac.queue.typename = ${spineQueueType = $aggQueueType}
**.spine[*].eth[*].mac.queue.dataCapacity = ${spineQueueSizePacketBytes = $aggQueueSizePacketBytes}B
**.spine[*].use_v2_pifo = ${spineUseV2Pifo = $aggUseV2Pifo}
**.spine[*].eth[*].mac.queue.dropper_type = ${spineDropperType = $aggDropperType}
**.spine[*].eth[*].mac.queue.scheduler_type = ${spineSchedulerType = $aggSchedulerType}
**.spine[*].eth[*].mac.queue.dctcp_thresh = ${spineQueueSizeDCTCPThresh = $aggQueueSizeDCTCPThresh}

**.agg[*].eth[*].mac.typename = ${aggMacTypeName = "AugmentedEtherMac"}
**.spine[*].eth[*].mac.typename = ${spineMacTypeName = $aggMacTypeName}
**.agg[*].relayUnit.typename = ${aggRelayTypeName = "BouncingIeee8021dRelay"}
**.spine[*].relayUnit.typename = ${spineRelayTypeName = $aggRelayTypeName}

**.agg[*].bounce_randomly = ${aggBounceRandomly = false}
**.spine[*].bounce_randomly = ${spineBounceRandomly = $aggBounceRandomly}

**.agg[*].bounce_randomly_v2 = ${aggBounceRandomlyPowerOfN = false}
**.spine[*].bounce_randomly_v2 = ${spineBounceRandomlyPowerOfN = $aggBounceRandomlyPowerOfN}
**.agg[*].random_power_bounce_factor = ${aggBounceRandomlyPowerFactor = 2}
**.spine[*].random_power_bounce_factor = ${spineBounceRandomlyPowerFactor = $aggBounceRandomlyPowerFactor}

**.agg[*].denominator_for_retrasnmissions = ${aggDenomRet = 2}
**.spine[*].denominator_for_retrasnmissions = ${spineDenomRet = $aggDenomRet}

**.arp.typename = "GlobalArp"
**.agg[*].learn_mac_addresses = false
**.spine[*].learn_mac_addresses = false
**.agg[*].macTable.addressTableFile ="./MAC_Table_Data/agg[" + string(parentIndex()) + "].txt"
**.spine[*].macTable.addressTableFile ="./MAC_Table_Data/spine[" + string(parentIndex()) + "].txt"

cmdenv-output-file = results/${numSpines}_spines_${numAggs}_aggs_${numServers}_servers_${numBurstyApps}_burstyapps_${numMiceBackgroundFlowAppsInEachServer}_mice_${numReqPerBurst}_reqPerBurst_${bgInterArrivalMultiplier}_bgintermult_${bgFlowSizeMultiplier}_bgfsizemult_${burstyInterArrivalMultiplier}_burstyintermult_${burstyFlowSizeMultiplier}_burstyfsizemult_${ttl}_ttl_${repetition}_rep_${aggRandomPowerFactor}_rndfwfactor_${aggBounceRandomlyPowerFactor}_rndbouncefactor_${incastFlowSize}_incastfsize_${markingTimer}_mrktimer_${orderingTimer}_ordtimer.out
output-scalar-file = results/${numSpines}_spines_${numAggs}_aggs_${numServers}_servers_${numBurstyApps}_burstyapps_${numMiceBackgroundFlowAppsInEachServer}_mice_${numReqPerBurst}_reqPerBurst_${bgInterArrivalMultiplier}_bgintermult_${bgFlowSizeMultiplier}_bgfsizemult_${burstyInterArrivalMultiplier}_burstyintermult_${burstyFlowSizeMultiplier}_burstyfsizemult_${ttl}_ttl_${repetition}_rep_${aggRandomPowerFactor}_rndfwfactor_${aggBounceRandomlyPowerFactor}_rndbouncefactor_${incastFlowSize}_incastfsize_${markingTimer}_mrktimer_${orderingTimer}_ordtimer.sca
output-vector-file = results/${numSpines}_spines_${numAggs}_aggs_${numServers}_servers_${numBurstyApps}_burstyapps_${numMiceBackgroundFlowAppsInEachServer}_mice_${numReqPerBurst}_reqPerBurst_${bgInterArrivalMultiplier}_bgintermult_${bgFlowSizeMultiplier}_bgfsizemult_${burstyInterArrivalMultiplier}_burstyintermult_${burstyFlowSizeMultiplier}_burstyfsizemult_${ttl}_ttl_${repetition}_rep_${aggRandomPowerFactor}_rndfwfactor_${aggBounceRandomlyPowerFactor}_rndbouncefactor_${incastFlowSize}_incastfsize_${markingTimer}_mrktimer_${orderingTimer}_ordtimer.vec
eventlog-file = results/${numSpines}_spines_${numAggs}_aggs_${numServers}_servers_${numBurstyApps}_burstyapps_${numMiceBackgroundFlowAppsInEachServer}_mice_${numReqPerBurst}_reqPerBurst_${bgInterArrivalMultiplier}_bgintermult_${bgFlowSizeMultiplier}_bgfsizemult_${burstyInterArrivalMultiplier}_burstyintermult_${burstyFlowSizeMultiplier}_burstyfsizemult_${ttl}_ttl_${repetition}_rep_${aggRandomPowerFactor}_rndfwfactor_${aggBounceRandomlyPowerFactor}_rndbouncefactor_${incastFlowSize}_incastfsize_${markingTimer}_mrktimer_${orderingTimer}_ordtimer.elog
snapshot-file = results/${numSpines}_spines_${numAggs}_aggs_${numServers}_servers_${numBurstyApps}_burstyapps_${numMiceBackgroundFlowAppsInEachServer}_mice_${numReqPerBurst}_reqPerBurst_${bgInterArrivalMultiplier}_bgintermult_${bgFlowSizeMultiplier}_bgfsizemult_${burstyInterArrivalMultiplier}_burstyintermult_${burstyFlowSizeMultiplier}_burstyfsizemult_${ttl}_ttl_${repetition}_rep_${aggRandomPowerFactor}_rndfwfactor_${aggBounceRandomlyPowerFactor}_rndbouncefactor_${incastFlowSize}_incastfsize_${markingTimer}_mrktimer_${orderingTimer}_ordtimer.sna

**.server[*].numApps = ${server0NumApps = 1 + $numMiceBackgroundFlowAppsInEachServer + $numBurstyApps}
# (index() < 1 + $numMiceBackgroundFlowAppsInEachServer) ? Mice flow : Bursty
**.server[*].app[1..].is_bursty = ${server0IsBursty = index() < 1 + $numMiceBackgroundFlowAppsInEachServer ? false : true}
**.server[*].app[0].typename = "DCTcpGenericServerApp"
**.server[*].app[0].localPort = 80
**.server[*].app[1..].typename = "MultiSocketBasicClient"
**.server[*].app[1..].is_mice_background = ${serverIsMiceBackground = index() < 1 + $numMiceBackgroundFlowAppsInEachServer ? true : false}


########################################################################
[Config DCTCP_DRILL]
network = LeafSpine1G

**.ipv4.ip.timeToLive = ${ttl = 250}
**.tcp.close_instead_of_timewait = ${closeInsteadOfWait = true}
**.tcp.FRs_disabled = ${FRsDisabled = false}
**.useECMP = ${usingECMP = false}
**.use_power_of_n_lb = ${usingPowerOfNLB = true}
**.agg[*].random_power_factor = ${aggRandomPowerFactor = 2}
**.spine[*].random_power_factor = ${spineRandomPowerFactor = $aggRandomPowerFactor}
**.tcp.tcpAlgorithmClass = "DCTcp"
**.tcp.ecnWillingness = ${ecnWill = true}

sim-time-limit = ${simTimeLimit = 5.2}s

**.ipv4.ip.should_use_v2_marking = ${shouldUseV2Marking = false}
**.ipv4.ip.marking_type = ${markingType = "SRPT"}
**.ipv4.ip.delta = ${markingTimer = 0.00120}s
**.ipv4.ip.has_ordering_layer = ${hasOrderingLayer = false}
**.ipv4.ip.omega = ${orderingTimer = 0.00120}s

**.num_spines = ${numSpines = 4}
**.num_aggs = ${numAggs = 8}
**.num_servers = ${numServers = 40}
**.num_bursty_apps = ${numBurstyApps = 1}
**.server[*].app[1..].num_requests_per_burst = ${numReqPerBurst = 40}
**.num_mice_background_flow_apps_in_each_server = ${numMiceBackgroundFlowAppsInEachServer = 1}
**.num_elephant_background_flow_apps_in_each_server = ${numElephantBackgroundFlowAppsInEachServer = 0}

**.server[*].app[1..].startTime = 0s
**.server[*].app[1..].replyLength = ${incastFlowSize = 20000}B
**.server[*].app[1..].requestLength = 250B
**.server[*].app[1..].application_category = ${serverApplicationCategory = index() < 1 + $numMiceBackgroundFlowAppsInEachServer ? "cache" : "web"}
**.server[*].app[1..].background_inter_arrival_time_multiplier = ${bgInterArrivalMultiplier = 19.75}
**.server[*].app[1..].background_flow_size_multiplier = ${bgFlowSizeMultiplier = 1}
**.server[*].app[1..].bursty_inter_arrival_time_multiplier = ${burstyInterArrivalMultiplier = 0.5, 0.167, 0.097, 0.071}
**.server[*].app[1..].bursty_flow_size_multiplier = ${burstyFlowSizeMultiplier = 1}
**.server[*].app[1..].numRequestsToSend = 1
**.server[*].app[1..].distibutions_base_root = "./"

**.agg[*].eth[*].mac.queue.typename = ${aggQueueType = "V2PIFO"}
**.agg[*].eth[*].mac.queue.dataCapacity = ${aggQueueSizePacketBytes = 50000}B
**.agg[*].use_v2_pifo = ${aggUseV2Pifo = true}
**.agg[*].eth[*].mac.queue.dropper_type = ${aggDropperType = "FIFO"}
**.agg[*].eth[*].mac.queue.scheduler_type = ${aggSchedulerType = "FIFO"}
**.agg[*].eth[*].mac.queue.dctcp_thresh = ${aggQueueSizeDCTCPThresh = 20}

**.spine[*].eth[*].mac.queue.typename = ${spineQueueType = $aggQueueType}
**.spine[*].eth[*].mac.queue.dataCapacity = ${spineQueueSizePacketBytes = $aggQueueSizePacketBytes}B
**.spine[*].use_v2_pifo = ${spineUseV2Pifo = $aggUseV2Pifo}
**.spine[*].eth[*].mac.queue.dropper_type = ${spineDropperType = $aggDropperType}
**.spine[*].eth[*].mac.queue.scheduler_type = ${spineSchedulerType = $aggSchedulerType}
**.spine[*].eth[*].mac.queue.dctcp_thresh = ${spineQueueSizeDCTCPThresh = $aggQueueSizeDCTCPThresh}

**.agg[*].eth[*].mac.typename = ${aggMacTypeName = "AugmentedEtherMac"}
**.spine[*].eth[*].mac.typename = ${spineMacTypeName = $aggMacTypeName}
**.agg[*].relayUnit.typename = ${aggRelayTypeName = "BouncingIeee8021dRelay"}
**.spine[*].relayUnit.typename = ${spineRelayTypeName = $aggRelayTypeName}

**.agg[*].bounce_randomly = ${aggBounceRandomly = false}
**.spine[*].bounce_randomly = ${spineBounceRandomly = $aggBounceRandomly}

**.agg[*].bounce_randomly_v2 = ${aggBounceRandomlyPowerOfN = false}
**.spine[*].bounce_randomly_v2 = ${spineBounceRandomlyPowerOfN = $aggBounceRandomlyPowerOfN}
**.agg[*].random_power_bounce_factor = ${aggBounceRandomlyPowerFactor = 2}
**.spine[*].random_power_bounce_factor = ${spineBounceRandomlyPowerFactor = $aggBounceRandomlyPowerFactor}

**.agg[*].denominator_for_retrasnmissions = ${aggDenomRet = 2}
**.spine[*].denominator_for_retrasnmissions = ${spineDenomRet = $aggDenomRet}

**.arp.typename = "GlobalArp"
**.agg[*].learn_mac_addresses = false
**.spine[*].learn_mac_addresses = false
**.agg[*].macTable.addressTableFile ="./MAC_Table_Data/agg[" + string(parentIndex()) + "].txt"
**.spine[*].macTable.addressTableFile ="./MAC_Table_Data/spine[" + string(parentIndex()) + "].txt"

cmdenv-output-file = results/${numSpines}_spines_${numAggs}_aggs_${numServers}_servers_${numBurstyApps}_burstyapps_${numMiceBackgroundFlowAppsInEachServer}_mice_${numReqPerBurst}_reqPerBurst_${bgInterArrivalMultiplier}_bgintermult_${bgFlowSizeMultiplier}_bgfsizemult_${burstyInterArrivalMultiplier}_burstyintermult_${burstyFlowSizeMultiplier}_burstyfsizemult_${ttl}_ttl_${repetition}_rep_${aggRandomPowerFactor}_rndfwfactor_${aggBounceRandomlyPowerFactor}_rndbouncefactor_${incastFlowSize}_incastfsize_${markingTimer}_mrktimer_${orderingTimer}_ordtimer.out
output-scalar-file = results/${numSpines}_spines_${numAggs}_aggs_${numServers}_servers_${numBurstyApps}_burstyapps_${numMiceBackgroundFlowAppsInEachServer}_mice_${numReqPerBurst}_reqPerBurst_${bgInterArrivalMultiplier}_bgintermult_${bgFlowSizeMultiplier}_bgfsizemult_${burstyInterArrivalMultiplier}_burstyintermult_${burstyFlowSizeMultiplier}_burstyfsizemult_${ttl}_ttl_${repetition}_rep_${aggRandomPowerFactor}_rndfwfactor_${aggBounceRandomlyPowerFactor}_rndbouncefactor_${incastFlowSize}_incastfsize_${markingTimer}_mrktimer_${orderingTimer}_ordtimer.sca
output-vector-file = results/${numSpines}_spines_${numAggs}_aggs_${numServers}_servers_${numBurstyApps}_burstyapps_${numMiceBackgroundFlowAppsInEachServer}_mice_${numReqPerBurst}_reqPerBurst_${bgInterArrivalMultiplier}_bgintermult_${bgFlowSizeMultiplier}_bgfsizemult_${burstyInterArrivalMultiplier}_burstyintermult_${burstyFlowSizeMultiplier}_burstyfsizemult_${ttl}_ttl_${repetition}_rep_${aggRandomPowerFactor}_rndfwfactor_${aggBounceRandomlyPowerFactor}_rndbouncefactor_${incastFlowSize}_incastfsize_${markingTimer}_mrktimer_${orderingTimer}_ordtimer.vec
eventlog-file = results/${numSpines}_spines_${numAggs}_aggs_${numServers}_servers_${numBurstyApps}_burstyapps_${numMiceBackgroundFlowAppsInEachServer}_mice_${numReqPerBurst}_reqPerBurst_${bgInterArrivalMultiplier}_bgintermult_${bgFlowSizeMultiplier}_bgfsizemult_${burstyInterArrivalMultiplier}_burstyintermult_${burstyFlowSizeMultiplier}_burstyfsizemult_${ttl}_ttl_${repetition}_rep_${aggRandomPowerFactor}_rndfwfactor_${aggBounceRandomlyPowerFactor}_rndbouncefactor_${incastFlowSize}_incastfsize_${markingTimer}_mrktimer_${orderingTimer}_ordtimer.elog
snapshot-file = results/${numSpines}_spines_${numAggs}_aggs_${numServers}_servers_${numBurstyApps}_burstyapps_${numMiceBackgroundFlowAppsInEachServer}_mice_${numReqPerBurst}_reqPerBurst_${bgInterArrivalMultiplier}_bgintermult_${bgFlowSizeMultiplier}_bgfsizemult_${burstyInterArrivalMultiplier}_burstyintermult_${burstyFlowSizeMultiplier}_burstyfsizemult_${ttl}_ttl_${repetition}_rep_${aggRandomPowerFactor}_rndfwfactor_${aggBounceRandomlyPowerFactor}_rndbouncefactor_${incastFlowSize}_incastfsize_${markingTimer}_mrktimer_${orderingTimer}_ordtimer.sna

**.server[*].numApps = ${server0NumApps = 1 + $numMiceBackgroundFlowAppsInEachServer + $numBurstyApps}
# (index() < 1 + $numMiceBackgroundFlowAppsInEachServer) ? Mice flow : Bursty
**.server[*].app[1..].is_bursty = ${server0IsBursty = index() < 1 + $numMiceBackgroundFlowAppsInEachServer ? false : true}
**.server[*].app[0].typename = "DCTcpGenericServerApp"
**.server[*].app[0].localPort = 80
**.server[*].app[1..].typename = "MultiSocketBasicClient"
**.server[*].app[1..].is_mice_background = ${serverIsMiceBackground = index() < 1 + $numMiceBackgroundFlowAppsInEachServer ? true : false}


########################################################################
[Config DCTCP_DIBS]
network = LeafSpine1G

**.ipv4.ip.timeToLive = ${ttl = 250}
**.tcp.close_instead_of_timewait = ${closeInsteadOfWait = true}
**.tcp.FRs_disabled = ${FRsDisabled = true}
**.useECMP = ${usingECMP = true}
**.use_power_of_n_lb = ${usingPowerOfNLB = false}
**.agg[*].random_power_factor = ${aggRandomPowerFactor = 2}
**.spine[*].random_power_factor = ${spineRandomPowerFactor = $aggRandomPowerFactor}
**.tcp.tcpAlgorithmClass = "DCTcp"
**.tcp.ecnWillingness = ${ecnWill = true}

sim-time-limit = ${simTimeLimit = 5.2}s

**.ipv4.ip.should_use_v2_marking = ${shouldUseV2Marking = false}
**.ipv4.ip.marking_type = ${markingType = "SRPT"}
**.ipv4.ip.delta = ${markingTimer = 0.00120}s
**.ipv4.ip.has_ordering_layer = ${hasOrderingLayer = false}
**.ipv4.ip.omega = ${orderingTimer = 0.00120}s

**.num_spines = ${numSpines = 4}
**.num_aggs = ${numAggs = 8}
**.num_servers = ${numServers = 40}
**.num_bursty_apps = ${numBurstyApps = 1}
**.server[*].app[1..].num_requests_per_burst = ${numReqPerBurst = 40}
**.num_mice_background_flow_apps_in_each_server = ${numMiceBackgroundFlowAppsInEachServer = 1}
**.num_elephant_background_flow_apps_in_each_server = ${numElephantBackgroundFlowAppsInEachServer = 0}

**.server[*].app[1..].startTime = 0s
**.server[*].app[1..].replyLength = ${incastFlowSize = 20000}B
**.server[*].app[1..].requestLength = 250B
**.server[*].app[1..].application_category = ${serverApplicationCategory = index() < 1 + $numMiceBackgroundFlowAppsInEachServer ? "cache" : "web"}
**.server[*].app[1..].background_inter_arrival_time_multiplier = ${bgInterArrivalMultiplier = 19.75}
**.server[*].app[1..].background_flow_size_multiplier = ${bgFlowSizeMultiplier = 1}
**.server[*].app[1..].bursty_inter_arrival_time_multiplier = ${burstyInterArrivalMultiplier = 0.5, 0.167, 0.097, 0.071}
**.server[*].app[1..].bursty_flow_size_multiplier = ${burstyFlowSizeMultiplier = 1}
**.server[*].app[1..].numRequestsToSend = 1
**.server[*].app[1..].distibutions_base_root = "./"

**.agg[*].eth[*].mac.queue.typename = ${aggQueueType = "V2PIFO"}
**.agg[*].eth[*].mac.queue.dataCapacity = ${aggQueueSizePacketBytes = 50000}B
**.agg[*].use_v2_pifo = ${aggUseV2Pifo = true}
**.agg[*].eth[*].mac.queue.dropper_type = ${aggDropperType = "FIFO"}
**.agg[*].eth[*].mac.queue.scheduler_type = ${aggSchedulerType = "FIFO"}
**.agg[*].eth[*].mac.queue.dctcp_thresh = ${aggQueueSizeDCTCPThresh = 20}

**.spine[*].eth[*].mac.queue.typename = ${spineQueueType = $aggQueueType}
**.spine[*].eth[*].mac.queue.dataCapacity = ${spineQueueSizePacketBytes = $aggQueueSizePacketBytes}B
**.spine[*].use_v2_pifo = ${spineUseV2Pifo = $aggUseV2Pifo}
**.spine[*].eth[*].mac.queue.dropper_type = ${spineDropperType = $aggDropperType}
**.spine[*].eth[*].mac.queue.scheduler_type = ${spineSchedulerType = $aggSchedulerType}
**.spine[*].eth[*].mac.queue.dctcp_thresh = ${spineQueueSizeDCTCPThresh = $aggQueueSizeDCTCPThresh}

**.agg[*].eth[*].mac.typename = ${aggMacTypeName = "AugmentedEtherMac"}
**.spine[*].eth[*].mac.typename = ${spineMacTypeName = $aggMacTypeName}
**.agg[*].relayUnit.typename = ${aggRelayTypeName = "BouncingIeee8021dRelay"}
**.spine[*].relayUnit.typename = ${spineRelayTypeName = $aggRelayTypeName}

**.agg[*].bounce_randomly = ${aggBounceRandomly = true}
**.spine[*].bounce_randomly = ${spineBounceRandomly = $aggBounceRandomly}

**.agg[*].bounce_randomly_v2 = ${aggBounceRandomlyPowerOfN = false}
**.spine[*].bounce_randomly_v2 = ${spineBounceRandomlyPowerOfN = $aggBounceRandomlyPowerOfN}
**.agg[*].random_power_bounce_factor = ${aggBounceRandomlyPowerFactor = 2}
**.spine[*].random_power_bounce_factor = ${spineBounceRandomlyPowerFactor = $aggBounceRandomlyPowerFactor}

**.agg[*].denominator_for_retrasnmissions = ${aggDenomRet = 2}
**.spine[*].denominator_for_retrasnmissions = ${spineDenomRet = $aggDenomRet}

**.arp.typename = "GlobalArp"
**.agg[*].learn_mac_addresses = false
**.spine[*].learn_mac_addresses = false
**.agg[*].macTable.addressTableFile ="./MAC_Table_Data/agg[" + string(parentIndex()) + "].txt"
**.spine[*].macTable.addressTableFile ="./MAC_Table_Data/spine[" + string(parentIndex()) + "].txt"

cmdenv-output-file = results/${numSpines}_spines_${numAggs}_aggs_${numServers}_servers_${numBurstyApps}_burstyapps_${numMiceBackgroundFlowAppsInEachServer}_mice_${numReqPerBurst}_reqPerBurst_${bgInterArrivalMultiplier}_bgintermult_${bgFlowSizeMultiplier}_bgfsizemult_${burstyInterArrivalMultiplier}_burstyintermult_${burstyFlowSizeMultiplier}_burstyfsizemult_${ttl}_ttl_${repetition}_rep_${aggRandomPowerFactor}_rndfwfactor_${aggBounceRandomlyPowerFactor}_rndbouncefactor_${incastFlowSize}_incastfsize_${markingTimer}_mrktimer_${orderingTimer}_ordtimer.out
output-scalar-file = results/${numSpines}_spines_${numAggs}_aggs_${numServers}_servers_${numBurstyApps}_burstyapps_${numMiceBackgroundFlowAppsInEachServer}_mice_${numReqPerBurst}_reqPerBurst_${bgInterArrivalMultiplier}_bgintermult_${bgFlowSizeMultiplier}_bgfsizemult_${burstyInterArrivalMultiplier}_burstyintermult_${burstyFlowSizeMultiplier}_burstyfsizemult_${ttl}_ttl_${repetition}_rep_${aggRandomPowerFactor}_rndfwfactor_${aggBounceRandomlyPowerFactor}_rndbouncefactor_${incastFlowSize}_incastfsize_${markingTimer}_mrktimer_${orderingTimer}_ordtimer.sca
output-vector-file = results/${numSpines}_spines_${numAggs}_aggs_${numServers}_servers_${numBurstyApps}_burstyapps_${numMiceBackgroundFlowAppsInEachServer}_mice_${numReqPerBurst}_reqPerBurst_${bgInterArrivalMultiplier}_bgintermult_${bgFlowSizeMultiplier}_bgfsizemult_${burstyInterArrivalMultiplier}_burstyintermult_${burstyFlowSizeMultiplier}_burstyfsizemult_${ttl}_ttl_${repetition}_rep_${aggRandomPowerFactor}_rndfwfactor_${aggBounceRandomlyPowerFactor}_rndbouncefactor_${incastFlowSize}_incastfsize_${markingTimer}_mrktimer_${orderingTimer}_ordtimer.vec
eventlog-file = results/${numSpines}_spines_${numAggs}_aggs_${numServers}_servers_${numBurstyApps}_burstyapps_${numMiceBackgroundFlowAppsInEachServer}_mice_${numReqPerBurst}_reqPerBurst_${bgInterArrivalMultiplier}_bgintermult_${bgFlowSizeMultiplier}_bgfsizemult_${burstyInterArrivalMultiplier}_burstyintermult_${burstyFlowSizeMultiplier}_burstyfsizemult_${ttl}_ttl_${repetition}_rep_${aggRandomPowerFactor}_rndfwfactor_${aggBounceRandomlyPowerFactor}_rndbouncefactor_${incastFlowSize}_incastfsize_${markingTimer}_mrktimer_${orderingTimer}_ordtimer.elog
snapshot-file = results/${numSpines}_spines_${numAggs}_aggs_${numServers}_servers_${numBurstyApps}_burstyapps_${numMiceBackgroundFlowAppsInEachServer}_mice_${numReqPerBurst}_reqPerBurst_${bgInterArrivalMultiplier}_bgintermult_${bgFlowSizeMultiplier}_bgfsizemult_${burstyInterArrivalMultiplier}_burstyintermult_${burstyFlowSizeMultiplier}_burstyfsizemult_${ttl}_ttl_${repetition}_rep_${aggRandomPowerFactor}_rndfwfactor_${aggBounceRandomlyPowerFactor}_rndbouncefactor_${incastFlowSize}_incastfsize_${markingTimer}_mrktimer_${orderingTimer}_ordtimer.sna

**.server[*].numApps = ${server0NumApps = 1 + $numMiceBackgroundFlowAppsInEachServer + $numBurstyApps}
# (index() < 1 + $numMiceBackgroundFlowAppsInEachServer) ? Mice flow : Bursty
**.server[*].app[1..].is_bursty = ${server0IsBursty = index() < 1 + $numMiceBackgroundFlowAppsInEachServer ? false : true}
**.server[*].app[0].typename = "DCTcpGenericServerApp"
**.server[*].app[0].localPort = 80
**.server[*].app[1..].typename = "MultiSocketBasicClient"
**.server[*].app[1..].is_mice_background = ${serverIsMiceBackground = index() < 1 + $numMiceBackgroundFlowAppsInEachServer ? true : false}



########################################################################
[Config DCTCP_V_SRPT_SCH_SRPT_ORD]
network = LeafSpine1G

**.ipv4.ip.timeToLive = ${ttl = 250}
**.tcp.close_instead_of_timewait = ${closeInsteadOfWait = true}
**.tcp.FRs_disabled = ${FRsDisabled = false}
**.useECMP = ${usingECMP = false}
**.use_power_of_n_lb = ${usingPowerOfNLB = true}
**.agg[*].random_power_factor = ${aggRandomPowerFactor = 2}
**.spine[*].random_power_factor = ${spineRandomPowerFactor = $aggRandomPowerFactor}
**.tcp.tcpAlgorithmClass = "DCTcp"
**.tcp.ecnWillingness = ${ecnWill = true}

sim-time-limit = ${simTimeLimit = 5.2}s

**.ipv4.ip.should_use_v2_marking = ${shouldUseV2Marking = true}
**.ipv4.ip.marking_type = ${markingType = "SRPT"}
**.ipv4.ip.delta = ${markingTimer = 0.00120}s
**.ipv4.ip.has_ordering_layer = ${hasOrderingLayer = true}
**.ipv4.ip.omega = ${orderingTimer = 0.00120}s

**.num_spines = ${numSpines = 4}
**.num_aggs = ${numAggs = 8}
**.num_servers = ${numServers = 40}
**.num_bursty_apps = ${numBurstyApps = 1}
**.server[*].app[1..].num_requests_per_burst = ${numReqPerBurst = 40}
**.num_mice_background_flow_apps_in_each_server = ${numMiceBackgroundFlowAppsInEachServer = 1}
**.num_elephant_background_flow_apps_in_each_server = ${numElephantBackgroundFlowAppsInEachServer = 0}

**.server[*].app[1..].startTime = 0s
**.server[*].app[1..].replyLength = ${incastFlowSize = 20000}B
**.server[*].app[1..].requestLength = 250B
**.server[*].app[1..].application_category = ${serverApplicationCategory = index() < 1 + $numMiceBackgroundFlowAppsInEachServer ? "cache" : "web"}
**.server[*].app[1..].background_inter_arrival_time_multiplier = ${bgInterArrivalMultiplier = 19.75}
**.server[*].app[1..].background_flow_size_multiplier = ${bgFlowSizeMultiplier = 1}
**.server[*].app[1..].bursty_inter_arrival_time_multiplier = ${burstyInterArrivalMultiplier = 0.5, 0.167, 0.097, 0.071}
**.server[*].app[1..].bursty_flow_size_multiplier = ${burstyFlowSizeMultiplier = 1}
**.server[*].app[1..].numRequestsToSend = 1
**.server[*].app[1..].distibutions_base_root = "./"

**.agg[*].eth[*].mac.queue.typename = ${aggQueueType = "V2PIFO"}
**.agg[*].eth[*].mac.queue.dataCapacity = ${aggQueueSizePacketBytes = 50000}B
**.agg[*].use_v2_pifo = ${aggUseV2Pifo = true}
**.agg[*].eth[*].mac.queue.dropper_type = ${aggDropperType = "SRPT"}
**.agg[*].eth[*].mac.queue.scheduler_type = ${aggSchedulerType = "SRPT"}
**.agg[*].eth[*].mac.queue.dctcp_thresh = ${aggQueueSizeDCTCPThresh = 20}

**.spine[*].eth[*].mac.queue.typename = ${spineQueueType = $aggQueueType}
**.spine[*].eth[*].mac.queue.dataCapacity = ${spineQueueSizePacketBytes = $aggQueueSizePacketBytes}B
**.spine[*].use_v2_pifo = ${spineUseV2Pifo = $aggUseV2Pifo}
**.spine[*].eth[*].mac.queue.dropper_type = ${spineDropperType = $aggDropperType}
**.spine[*].eth[*].mac.queue.scheduler_type = ${spineSchedulerType = $aggSchedulerType}
**.spine[*].eth[*].mac.queue.dctcp_thresh = ${spineQueueSizeDCTCPThresh = $aggQueueSizeDCTCPThresh}

**.agg[*].eth[*].mac.typename = ${aggMacTypeName = "AugmentedEtherMac"}
**.spine[*].eth[*].mac.typename = ${spineMacTypeName = $aggMacTypeName}
**.agg[*].relayUnit.typename = ${aggRelayTypeName = "BouncingIeee8021dRelay"}
**.spine[*].relayUnit.typename = ${spineRelayTypeName = $aggRelayTypeName}

**.agg[*].bounce_randomly = ${aggBounceRandomly = false}
**.spine[*].bounce_randomly = ${spineBounceRandomly = $aggBounceRandomly}

**.agg[*].bounce_randomly_v2 = ${aggBounceRandomlyPowerOfN = true}
**.spine[*].bounce_randomly_v2 = ${spineBounceRandomlyPowerOfN = $aggBounceRandomlyPowerOfN}
**.agg[*].random_power_bounce_factor = ${aggBounceRandomlyPowerFactor = 2}
**.spine[*].random_power_bounce_factor = ${spineBounceRandomlyPowerFactor = $aggBounceRandomlyPowerFactor}

**.agg[*].denominator_for_retrasnmissions = ${aggDenomRet = 2}
**.spine[*].denominator_for_retrasnmissions = ${spineDenomRet = $aggDenomRet}

**.arp.typename = "GlobalArp"
**.agg[*].learn_mac_addresses = false
**.spine[*].learn_mac_addresses = false
**.agg[*].macTable.addressTableFile ="./MAC_Table_Data/agg[" + string(parentIndex()) + "].txt"
**.spine[*].macTable.addressTableFile ="./MAC_Table_Data/spine[" + string(parentIndex()) + "].txt"

cmdenv-output-file = results/${numSpines}_spines_${numAggs}_aggs_${numServers}_servers_${numBurstyApps}_burstyapps_${numMiceBackgroundFlowAppsInEachServer}_mice_${numReqPerBurst}_reqPerBurst_${bgInterArrivalMultiplier}_bgintermult_${bgFlowSizeMultiplier}_bgfsizemult_${burstyInterArrivalMultiplier}_burstyintermult_${burstyFlowSizeMultiplier}_burstyfsizemult_${ttl}_ttl_${repetition}_rep_${aggRandomPowerFactor}_rndfwfactor_${aggBounceRandomlyPowerFactor}_rndbouncefactor_${incastFlowSize}_incastfsize_${markingTimer}_mrktimer_${orderingTimer}_ordtimer.out
output-scalar-file = results/${numSpines}_spines_${numAggs}_aggs_${numServers}_servers_${numBurstyApps}_burstyapps_${numMiceBackgroundFlowAppsInEachServer}_mice_${numReqPerBurst}_reqPerBurst_${bgInterArrivalMultiplier}_bgintermult_${bgFlowSizeMultiplier}_bgfsizemult_${burstyInterArrivalMultiplier}_burstyintermult_${burstyFlowSizeMultiplier}_burstyfsizemult_${ttl}_ttl_${repetition}_rep_${aggRandomPowerFactor}_rndfwfactor_${aggBounceRandomlyPowerFactor}_rndbouncefactor_${incastFlowSize}_incastfsize_${markingTimer}_mrktimer_${orderingTimer}_ordtimer.sca
output-vector-file = results/${numSpines}_spines_${numAggs}_aggs_${numServers}_servers_${numBurstyApps}_burstyapps_${numMiceBackgroundFlowAppsInEachServer}_mice_${numReqPerBurst}_reqPerBurst_${bgInterArrivalMultiplier}_bgintermult_${bgFlowSizeMultiplier}_bgfsizemult_${burstyInterArrivalMultiplier}_burstyintermult_${burstyFlowSizeMultiplier}_burstyfsizemult_${ttl}_ttl_${repetition}_rep_${aggRandomPowerFactor}_rndfwfactor_${aggBounceRandomlyPowerFactor}_rndbouncefactor_${incastFlowSize}_incastfsize_${markingTimer}_mrktimer_${orderingTimer}_ordtimer.vec
eventlog-file = results/${numSpines}_spines_${numAggs}_aggs_${numServers}_servers_${numBurstyApps}_burstyapps_${numMiceBackgroundFlowAppsInEachServer}_mice_${numReqPerBurst}_reqPerBurst_${bgInterArrivalMultiplier}_bgintermult_${bgFlowSizeMultiplier}_bgfsizemult_${burstyInterArrivalMultiplier}_burstyintermult_${burstyFlowSizeMultiplier}_burstyfsizemult_${ttl}_ttl_${repetition}_rep_${aggRandomPowerFactor}_rndfwfactor_${aggBounceRandomlyPowerFactor}_rndbouncefactor_${incastFlowSize}_incastfsize_${markingTimer}_mrktimer_${orderingTimer}_ordtimer.elog
snapshot-file = results/${numSpines}_spines_${numAggs}_aggs_${numServers}_servers_${numBurstyApps}_burstyapps_${numMiceBackgroundFlowAppsInEachServer}_mice_${numReqPerBurst}_reqPerBurst_${bgInterArrivalMultiplier}_bgintermult_${bgFlowSizeMultiplier}_bgfsizemult_${burstyInterArrivalMultiplier}_burstyintermult_${burstyFlowSizeMultiplier}_burstyfsizemult_${ttl}_ttl_${repetition}_rep_${aggRandomPowerFactor}_rndfwfactor_${aggBounceRandomlyPowerFactor}_rndbouncefactor_${incastFlowSize}_incastfsize_${markingTimer}_mrktimer_${orderingTimer}_ordtimer.sna

**.server[*].numApps = ${server0NumApps = 1 + $numMiceBackgroundFlowAppsInEachServer + $numBurstyApps}
# (index() < 1 + $numMiceBackgroundFlowAppsInEachServer) ? Mice flow : Bursty
**.server[*].app[1..].is_bursty = ${server0IsBursty = index() < 1 + $numMiceBackgroundFlowAppsInEachServer ? false : true}
**.server[*].app[0].typename = "DCTcpGenericServerApp"
**.server[*].app[0].localPort = 80